
#======================================================================
# CRYSTAL DATA
#----------------------------------------------------------------------
data_VESTA_phase_1

_chemical_name_common                  'al11.81 ca o19 ti0.19                 '
_cell_length_a                         5.610745
_cell_length_b                         5.610745
_cell_length_c                         22.097383
_cell_angle_alpha                      90.000000
_cell_angle_beta                       90.000000
_cell_angle_gamma                      120.000000
_cell_volume                           602.438252
_space_group_name_H-M_alt              'P 63/m m c'
_space_group_IT_number                 194

loop_
_space_group_symop_operation_xyz
   'x, y, z'
   '-x, -y, -z'
   '-y, x-y, z'
   'y, -x+y, -z'
   '-x+y, -x, z'
   'x-y, x, -z'
   '-x, -y, z+1/2'
   'x, y, -z+1/2'
   'y, -x+y, z+1/2'
   '-y, x-y, -z+1/2'
   'x-y, x, z+1/2'
   '-x+y, -x, -z+1/2'
   'y, x, -z'
   '-y, -x, z'
   'x-y, -y, -z'
   '-x+y, y, z'
   '-x, -x+y, -z'
   'x, x-y, z'
   '-y, -x, -z+1/2'
   'y, x, z+1/2'
   '-x+y, y, -z+1/2'
   'x-y, -y, z+1/2'
   'x, x-y, -z+1/2'
   '-x, -x+y, z+1/2'

loop_
   _atom_site_label
   _atom_site_occupancy
   _atom_site_fract_x
   _atom_site_fract_y
   _atom_site_fract_z
   _atom_site_adp_type
   _atom_site_U_iso_or_equiv
   _atom_site_type_symbol
   Al1        1.0     0.000000     0.000000     0.000000    Uiso  ? Al
   Al2        1.0     0.000000     0.000000     0.250000    Uiso  ? Al
   Al3        1.0     0.333333     0.666667     0.027975    Uiso  ? Al
   Al4        0.2500  0.333333     0.666667     0.190992    Uiso  ? Al
   Al5        1.0     0.168360     0.336720     0.890520    Uiso  ? Al
   Ca1        1.0     0.666667     0.333333     0.250000    Uiso  ? Ca
   O1         1.0     0.000000     0.000000     0.850205    Uiso  ? O
   O2         1.0     0.666667     0.333333     0.054700    Uiso  ? O
   O3         1.0     0.181567     0.363163     0.250000    Uiso  ? O
   O4         1.0     0.155144     0.310290     0.052231    Uiso  ? O
   O5         1.0     0.503434     0.006863     0.149449    Uiso  ? O
   Ti4        0.7500  0.333333     0.666667     0.190992    Uiso  ? Ti
